Circuit: *** SPICE deck for cell 2_AOI22_sim{sch} from library project

Vgnd: both pins shorted together -- ignoring.
Warning: toxe, toxp and dtox all given and toxe != toxp + dtox; dtox ignored.
Direct Newton iteration for .op point succeeded.

tf=8.35588e-010 FROM 6.05327e-009 TO 6.88886e-009
tpdr=6.42856e-010 FROM 0 TO 6.42856e-010
tpdf=6.27159e-009 FROM 0 TO 6.27159e-009
trise=4.89864e-010 FROM 4.38869e-010 TO 9.28733e-010


Date: Tue Apr 12 12:00:45 2022
Total elapsed time: 0.345 seconds.

tnom = 27
temp = 27
method = modified trap
totiter = 5336
traniter = 5322
tranpoints = 2033
accept = 1694
rejected = 339
matrix size = 55
fillins = 0
solver = Normal
Matrix Compiler1: 6.22 KB object code size  3.3/1.9/[0.8]
Matrix Compiler2: 6.53 KB object code size  1.5/2.4/[0.9]

