Circuit: *** SPICE deck for cell 2_cell6_sim{sch} from library project

Vgnd: both pins shorted together -- ignoring.
Limiting rise time of source va to 5e-010
Limiting fall time of source va to 5e-010
Warning: toxe, toxp and dtox all given and toxe != toxp + dtox; dtox ignored.
Direct Newton iteration for .op point succeeded.

tf=3.83e-010 FROM 5.95025e-009 TO 6.33325e-009
tpdr=6.12619e-010 FROM 0 TO 6.12619e-010
tpdf=6.12451e-009 FROM 0 TO 6.12451e-009
trise=3.65056e-010 FROM 4.75877e-010 TO 8.40933e-010


Date: Tue Apr 12 14:04:52 2022
Total elapsed time: 0.423 seconds.

tnom = 27
temp = 27
method = modified trap
totiter = 5154
traniter = 5132
tranpoints = 1935
accept = 1681
rejected = 254
matrix size = 71
fillins = 0
solver = Normal
Matrix Compiler1: 8.86 KB object code size  3.7/2.6/[1.0]
Matrix Compiler2: 8.94 KB object code size  1.9/2.4/[1.0]

