Circuit: *** SPICE deck for cell 2_NAND_sim{sch} from library project

Vgnd: both pins shorted together -- ignoring.
Warning: toxe, toxp and dtox all given and toxe != toxp + dtox; dtox ignored.
Direct Newton iteration for .op point succeeded.

tf=3.83708e-010 FROM 5.75432e-009 TO 6.13803e-009
tpdr=5.71485e-010 FROM 0 TO 5.71485e-010
tpdf=5.86876e-009 FROM 0 TO 5.86876e-009
trise=3.83667e-010 FROM 3.91936e-010 TO 7.75603e-010


Date: Tue Apr 12 03:31:59 2022
Total elapsed time: 0.179 seconds.

tnom = 27
temp = 27
method = modified trap
totiter = 5176
traniter = 5147
tranpoints = 2076
accept = 1749
rejected = 327
matrix size = 44
fillins = 0
solver = Normal
Matrix Compiler1: 4.79 KB object code size  1.6/1.0/[0.4]
Matrix Compiler2: off  [0.8]/1.1/0.9

