Circuit: *** SPICE deck for cell 2_NOR_sim{sch} from library project

Vgnd: both pins shorted together -- ignoring.
Warning: toxe, toxp and dtox all given and toxe != toxp + dtox; dtox ignored.
Direct Newton iteration for .op point succeeded.

tf=3.8379e-010 FROM 6.05142e-009 TO 6.43521e-009
tpdr=5.51752e-010 FROM 0 TO 5.51752e-010
tpdf=6.1721e-009 FROM 0 TO 6.1721e-009
trise=5.37609e-010 FROM 3.8613e-010 TO 9.23739e-010


Date: Tue Apr 12 13:00:16 2022
Total elapsed time: 0.277 seconds.

tnom = 27
temp = 27
method = modified trap
totiter = 5290
traniter = 5262
tranpoints = 2049
accept = 1731
rejected = 318
matrix size = 44
fillins = 1
solver = Normal
Matrix Compiler1: 4.71 KB object code size  2.0/2.1/[1.0]
Matrix Compiler2: 5.03 KB object code size  1.3/2.0/[0.9]

