Circuit: *** SPICE deck for cell 2_NOT_sim{sch} from library project

Warning: toxe, toxp and dtox all given and toxe != toxp + dtox; dtox ignored.
Direct Newton iteration for .op point succeeded.

tf=3.70655e-010 FROM 5.77755e-009 TO 6.1482e-009
tpdr=5.03873e-010 FROM 0 TO 5.03873e-010
tpdf=5.90847e-009 FROM 0 TO 5.90847e-009
trise=3.14458e-010 FROM 3.52276e-010 TO 6.66734e-010


Date: Tue Apr 12 01:18:07 2022
Total elapsed time: 0.120 seconds.

tnom = 27
temp = 27
method = modified trap
totiter = 4730
traniter = 4702
tranpoints = 1917
accept = 1658
rejected = 259
matrix size = 22
fillins = 0
solver = Normal
Matrix Compiler1: 2.23 KB object code size  0.8/0.5/[0.2]
Matrix Compiler2: off  [0.4]/0.5/0.4

