Circuit: *** SPICE deck for cell 4_NOT_sim{sch} from library project

Warning: toxe, toxp and dtox all given and toxe != toxp + dtox; dtox ignored.
Direct Newton iteration for .op point succeeded.

tf=2.26588e-010 FROM 5.76351e-009 TO 5.9901e-009
tpdr=4.41389e-010 FROM 0 TO 4.41389e-010
tpdf=5.85516e-009 FROM 0 TO 5.85516e-009
trise=2.21935e-010 FROM 3.34255e-010 TO 5.5619e-010


Date: Tue Apr 12 01:27:28 2022
Total elapsed time: 0.110 seconds.

tnom = 27
temp = 27
method = modified trap
totiter = 5168
traniter = 5142
tranpoints = 2112
accept = 1790
rejected = 322
matrix size = 22
fillins = 0
solver = Normal
Matrix Compiler1: 2.23 KB object code size  1.1/1.2/[0.3]
Matrix Compiler2: 2.36 KB object code size  0.4/0.6/[0.3]

