Circuit: *** SPICE deck for cell AOI22_sim{sch} from library project

Vgnd: both pins shorted together -- ignoring.
Warning: toxe, toxp and dtox all given and toxe != toxp + dtox; dtox ignored.
Direct Newton iteration for .op point succeeded.

tf=1.32981e-009 FROM 5.93455e-009 TO 7.26437e-009
tpdr=6.82006e-010 FROM 0 TO 6.82006e-010
tpdf=6.29039e-009 FROM 0 TO 6.29039e-009
trise=6.51374e-010 FROM 4.22055e-010 TO 1.07343e-009


Date: Tue Apr 12 04:08:06 2022
Total elapsed time: 0.220 seconds.

tnom = 27
temp = 27
method = modified trap
totiter = 4980
traniter = 4964
tranpoints = 1957
accept = 1638
rejected = 319
matrix size = 55
fillins = 0
solver = Normal
Matrix Compiler1: 6.17 KB object code size  2.4/2.3/[0.6]
Matrix Compiler2: off  [1.3]/2.3/1.5

