Circuit: *** SPICE deck for cell cell7_sim{sch} from library project

Vgnd: both pins shorted together -- ignoring.
Limiting rise time of source vd to 5e-010
Limiting fall time of source vd to 5e-010
Warning: toxe, toxp and dtox all given and toxe != toxp + dtox; dtox ignored.
Direct Newton iteration failed to find .op point.  (Use ".option noopiter" to skip.)
Starting Gmin stepping
Gmin = 10
Gmin = 1.07374
Gmin = 0.115292
Gmin = 0.0123794
Gmin = 0.00132923
Gmin = 0.000142725
Gmin = 1.5325e-005
Gmin = 1.6455e-006
Gmin = 1.76685e-007
Gmin = 1.89714e-008
Gmin = 2.03704e-009
Gmin = 2.18725e-010
Gmin = 2.34854e-011
Gmin = 2.52173e-012
Gmin = 2.70769e-013
Gmin = 0
Gmin stepping succeeded in finding the operating point.


tf=9.82234e-010 FROM 6.1369e-009 TO 7.11913e-009
tpdr=5.05736e-010 FROM 0 TO 5.05736e-010
tpdf=6.63648e-009 FROM 0 TO 6.63648e-009
trise=7.85746e-010 FROM 3.51894e-010 TO 1.13764e-009


Date: Tue Apr 12 15:54:16 2022
Total elapsed time: 0.277 seconds.

tnom = 27
temp = 27
method = modified trap
totiter = 5098
traniter = 4674
tranpoints = 1726
accept = 1516
rejected = 210
matrix size = 64
fillins = 2
solver = Normal
Matrix Compiler1: 8.09 KB object code size  3.2/1.6/[1.4]
Matrix Compiler2: off  [1.9]/2.1/2.2

