Circuit: *** SPICE deck for cell NAND_sim2{sch} from library project

Vgnd: both pins shorted together -- ignoring.
Warning: toxe, toxp and dtox all given and toxe != toxp + dtox; dtox ignored.
Direct Newton iteration for .op point succeeded.
Heightened Def Con from 1.00012e-010 to 7.83606e-010
Heightened Def Con from 1.01e-008 to 1.07836e-008
Heightened Def Con from 2.01e-008 to 2.07836e-008
Heightened Def Con from 3.01e-008 to 3.07836e-008
Heightened Def Con from 4.01e-008 to 4.07836e-008
Heightened Def Con from 5.01e-008 to 5.07836e-008
Heightened Def Con from 6.01e-008 to 6.07836e-008
Heightened Def Con from 7.01e-008 to 7.07836e-008
Heightened Def Con from 8.01e-008 to 8.07836e-008
Heightened Def Con from 9.01e-008 to 9.07836e-008

tf=2.30635e-010 FROM 5.17359e-009 TO 5.40422e-009
tpdr=2.92854e-010 FROM 0 TO 2.92854e-010
tpdf=5.23142e-009 FROM 0 TO 5.23142e-009
trise=4.02576e-010 FROM 1.58506e-010 TO 5.61082e-010


Date: Mon Apr 11 01:34:30 2022
Total elapsed time: 0.364 seconds.

tnom = 27
temp = 27
method = modified trap
totiter = 7152
traniter = 7124
tranpoints = 2273
accept = 2035
rejected = 248
matrix size = 44
fillins = 0
solver = Normal
Matrix Compiler1: 4.79 KB object code size  1.6/1.4/[0.8]
Matrix Compiler2: 5.10 KB object code size  1.0/1.7/[0.7]

