Circuit: *** SPICE deck for cell NAND_sim{sch} from library project

Vgnd: both pins shorted together -- ignoring.
Warning: toxe, toxp and dtox all given and toxe != toxp + dtox; dtox ignored.
Direct Newton iteration for .op point succeeded.

tf=6.35761e-010 FROM 5.76991e-009 TO 6.40567e-009
tpdr=6.82944e-010 FROM 0 TO 6.82944e-010
tpdf=5.95054e-009 FROM 0 TO 5.95054e-009
trise=5.71487e-010 FROM 4.24591e-010 TO 9.96077e-010


Date: Tue Apr 12 16:49:32 2022
Total elapsed time: 0.261 seconds.

tnom = 27
temp = 27
method = modified trap
totiter = 5195
traniter = 5165
tranpoints = 2058
accept = 1730
rejected = 328
matrix size = 44
fillins = 0
solver = Normal
Matrix Compiler1: 4.79 KB object code size  2.2/1.6/[0.4]
Matrix Compiler2: 5.10 KB object code size  1.1/0.9/[0.5]

