Circuit: *** SPICE deck for cell NOR_sim{sch} from library project

Vgnd: both pins shorted together -- ignoring.
Warning: toxe, toxp and dtox all given and toxe != toxp + dtox; dtox ignored.
Direct Newton iteration for .op point succeeded.

tf=6.81679e-010 FROM 5.9107e-009 TO 6.59238e-009
tpdr=5.92181e-010 FROM 0 TO 5.92181e-010
tpdf=6.11372e-009 FROM 0 TO 6.11372e-009
trise=6.9203e-010 FROM 3.74819e-010 TO 1.06685e-009


Date: Tue Apr 12 16:52:31 2022
Total elapsed time: 0.548 seconds.

tnom = 27
temp = 27
method = modified trap
totiter = 5349
traniter = 5320
tranpoints = 2020
accept = 1699
rejected = 321
matrix size = 44
fillins = 1
solver = Normal
Matrix Compiler1: 4.69 KB object code size  3.5/4.3/[1.3]
Matrix Compiler2: 5.04 KB object code size  1.6/2.7/[1.5]

